15
	6	10
N 	-1.776 -2.2204 -0.4835
C 	-1.0823 -1.4926 0.5189
O 	-1.2106 -1.8692 1.7262
C 	-0.2574 -0.3604 0.1852
C 	-0.1392 0.0061 -1.0588
C 	0.5932 1.0181 -1.4313
X 	0.6289 1.1895 -2.1606
C 	1.3221 1.7915 -0.4367
C 	1.2286 1.4492 0.853
N 	0.4238 0.3461 1.2092
X 	0.3667 0.1485 1.9304
H 	-1.2339 -2.713 -1.2242
H 	-2.8158 -2.263 -0.4806
H 	2.1841 2.9678 -0.788
H 	1.9763 2.2404 1.885
	0 	1 S
	1 	2 D
	1 	3 S
	3 	4 D
	4 	5 D
	5 	6 S
	5 	7 S
	7 	8 D
	8 	9 S
	9 	10 S
	9 	3 S
	0 	11 S
	0 	12 S
	7 	13 S
	8 	14 S
