23
	7	11
O 	-0.6715 -0.2984 -0.0875
C 	-0.4662 0.7405 -0.9924
C 	-1.0843 0.4582 -2.3201
Br 	-0.161 -1.1739 -3.0222
C 	-2.5011 0.1117 -2.4201
C 	-3.5677 1.0221 -1.961
C 	-3.5857 1.2438 -0.4888
X 	-4.1457 1.7028 -0.2933
C 	1.0972 0.7464 -1.2805
S 	1.9364 1.021 0.2972
O 	1.2918 1.78 -2.1826
X 	1.502 1.4921 -2.8425
H 	-0.4783 0.0928 0.821
H 	-0.6447 1.7213 -0.5688
H 	-0.7414 1.2287 -3.073
H 	-2.6332 -0.8501 -1.7856
H 	-2.7438 -0.3201 -3.4527
H 	-3.502 2.0124 -2.5206
H 	-4.5708 0.5727 -2.2101
H 	-2.6735 1.568 -0.0137
H 	-3.8493 0.2385 -0.0284
H 	1.2892 -0.2473 -1.7194
H 	1.0464 1.4765 1.2737
	0 	1 S
	1 	2 S
	2 	3 S
	2 	4 S
	4 	5 S
	5 	6 S
	6 	7 S
	1 	8 S
	8 	9 S
	8 	10 S
	10 	11 S
	0 	12 S
	1 	13 S
	2 	14 S
	4 	15 S
	4 	16 S
	5 	17 S
	5 	18 S
	6 	19 S
	6 	20 S
	8 	21 S
	9 	22 S
