22
	10	13
S 	0.3184 1.4757 -0.7924
C 	1.41 0.1563 -1.459
Br 	2.2201 0.8134 -3.0894
C 	0.522 -1.0115 -1.7013
Br 	1.3933 -2.5387 -2.4674
C 	2.522 -0.1061 -0.4909
C 	3.4788 -1.128 -0.8875
C 	4.7205 -0.9837 -1.3098
Br 	5.7733 -2.5544 -1.7744
C 	5.3949 0.3267 -1.4614
X 	5.6047 0.4384 -2.1728
C 	2.0374 -0.3459 0.9323
Br 	1.0739 1.1578 1.6403
X 	2.6055 -0.5294 1.3863
H 	0.9802 2.7027 -0.8103
H 	0.0502 -1.3755 -0.7374
H 	-0.3444 -0.7437 -2.3801
H 	3.0795 0.8813 -0.4529
H 	3.1638 -2.1963 -0.803
H 	6.3737 0.288 -0.8872
H 	4.8771 1.1853 -1.0507
H 	1.342 -1.2209 0.865
	0 	1 S
	1 	2 S
	1 	3 S
	3 	4 S
	1 	5 S
	5 	6 S
	6 	7 D
	7 	8 S
	7 	9 S
	9 	10 S
	5 	11 S
	11 	12 S
	11 	13 S
	0 	14 S
	3 	15 S
	3 	16 S
	5 	17 S
	6 	18 S
	9 	19 S
	9 	20 S
	11 	21 S
